Version 4
SHEET 1 880 680
WIRE 192 0 -128 0
WIRE 304 0 192 0
WIRE 480 0 336 0
WIRE 512 0 480 0
WIRE -128 32 -128 0
WIRE 304 32 304 0
WIRE 336 32 336 0
WIRE 192 64 192 0
WIRE -128 128 -128 112
WIRE 480 128 480 0
WIRE 192 160 192 144
WIRE 192 160 96 160
WIRE 320 160 320 96
WIRE 320 160 192 160
WIRE -240 176 -272 176
WIRE -128 176 -240 176
WIRE 32 176 -48 176
WIRE -240 192 -240 176
WIRE 176 192 96 192
WIRE -240 288 -240 272
WIRE 176 288 176 192
WIRE 480 288 480 208
FLAG 176 288 0
FLAG 480 288 0
FLAG -128 128 0
FLAG -240 288 0
FLAG -272 176 ctrl
IOPIN -272 176 In
FLAG 512 0 out
IOPIN 512 0 Out
SYMBOL AutoGenerated\\ZVN4206A 64 176 R0
SYMATTR InstName U1
SYMBOL AutoGenerated\\ZVP2106A 320 64 R270
SYMATTR InstName U2
SYMBOL res -32 160 R90
WINDOW 0 0 56 VBottom 2
WINDOW 3 32 56 VTop 2
SYMATTR InstName R1
SYMATTR Value 100
SYMBOL res 208 160 R180
WINDOW 0 36 76 Left 2
WINDOW 3 36 40 Left 2
SYMATTR InstName R2
SYMATTR Value 10k
SYMBOL res 496 224 R180
WINDOW 0 36 76 Left 2
WINDOW 3 36 40 Left 2
SYMATTR InstName R3
SYMATTR Value 50
SYMBOL voltage -128 16 R0
WINDOW 123 0 0 Left 0
WINDOW 39 0 0 Left 0
SYMATTR InstName V1
SYMATTR Value 5
SYMBOL voltage -240 176 R0
WINDOW 123 0 0 Left 0
WINDOW 39 0 0 Left 0
SYMATTR InstName V2
SYMATTR Value PULSE(0 3.3 0.1 0 0 0 0.1 5)
SYMBOL pmos 208 -160 R270
SYMATTR InstName M1
TEXT -274 312 Left 2 !.tran 1
